@<TRIPOS>MOLECULE
DME
 16 15 0 0 0
SMALL
USER_CHARGES

@<TRIPOS>ATOM
1 C 12.4580 8.9696 9.8554 C.3 1 UNL1 0.2140926044
2 H 12.4364 9.6195 8.9617 H 1 UNL1 0.0002882380
3 H 12.4375 9.6182 10.7501 H 1 UNL1 0.0002882380
4 O 13.6150 8.1469 9.8542 O.3 1 UNL1 -0.4114571526
5 C 14.8187 8.8954 9.8540 C.3 1 UNL1 0.1392241293
6 H 15.6467 8.1767 9.8529 H 1 UNL1 0.0188687559
7 H 14.8932 9.5364 8.9567 H 1 UNL1 0.0188687559
8 H 14.8943 9.5350 10.7521 H 1 UNL1 0.0188687559
9 H 8.8103 7.4871 8.9585 H 1 UNL1 0.0204410196
10 H 11.2679 7.4030 10.7493 H 1 UNL1 -0.0009376423
11 H 8.8111 7.4860 10.7538 H 1 UNL1 0.0204410196
12 H 11.2671 7.4041 8.9608 H 1 UNL1 -0.0009376423
13 O 10.0894 8.8755 9.8564 O.3 1 UNL1 -0.4114571526
14 C 8.8857 8.1269 9.8565 C.3 1 UNL1 0.1333226754
15 H 8.0577 8.8455 9.8573 H 1 UNL1 0.0204410196
16 C 11.2464 8.0529 9.8554 C.3 1 UNL1 0.2196443782
@<TRIPOS>BOND
     1     1     2    1
     2     1     3    1
     3     1     4    1
     4     1    16    1
     5     4     5    1
     6     5     6    1
     7     5     7    1
     8     5     8    1
     9     9    14    1
    10    10    16    1
    11    11    14    1
    12    12    16    1
    13    13    14    1
    14    13    16    1
    15    14    15    1
